@<TRIPOS>MOLECULE
data/serotonin.pdb
 25 26 0 0 0
SMALL
GASTEIGER

@<TRIPOS>ATOM
      1 H1          6.9030    1.5260   -0.0830 H       0  UNK0        0.1653
      2 O1          3.0680    6.5290    0.0410 O.3     0  UNK0       -0.5067
      3 H2         11.9930    5.8600    0.1510 H       0  UNK0        0.1182
      4 H3         10.9480    7.0240   -0.4660 H       0  UNK0        0.1182
      5 N1         11.0560    6.2870    0.2380 N.3     0  UNK0       -0.3297
      6 C1         10.0540    5.2590    0.0370 C.3     0  UNK0       -0.0029
      7 C2          8.6080    5.8190    0.1170 C.3     0  UNK0       -0.0133
      8 N2          6.9260    2.5480   -0.0460 N.ar    0  UNK0       -0.3604
      9 C3          8.1080    3.3620    0.0010 C.ar    0  UNK0        0.0059
     10 C4          7.6950    4.6450    0.0450 C.ar    0  UNK0       -0.0211
     11 C5          5.3130    5.7840    0.0500 C.ar    0  UNK0       -0.0108
     12 C6          6.2320    4.6610    0.0240 C.ar    0  UNK0        0.0063
     13 C7          5.8050    3.4110   -0.0300 C.ar    0  UNK0        0.0470
     14 C8          4.4070    3.0670   -0.0600 C.ar    0  UNK0       -0.0343
     15 C9          3.5220    4.0750   -0.0380 C.ar    0  UNK0       -0.0182
     16 C10         3.9970    5.5040    0.0200 C.ar    0  UNK0        0.1176
     17 H4          3.5420    7.4090    0.0800 H       0  UNK0        0.2921
     18 H5         10.1900    4.8490   -0.8650 H       0  UNK0        0.0425
     19 H6         10.1660    4.5590    0.7420 H       0  UNK0        0.0425
     20 H7          8.4740    6.3080    0.9790 H       0  UNK0        0.0326
     21 H8          8.4350    6.4390   -0.6490 H       0  UNK0        0.0326
     22 H9          9.0550    3.0400    0.0010 H       0  UNK0        0.0810
     23 H10         5.6440    6.7270    0.0890 H       0  UNK0        0.0661
     24 H11         4.1070    2.1140   -0.0960 H       0  UNK0        0.0639
     25 H12         2.5420    3.8770   -0.0600 H       0  UNK0        0.0655
@<TRIPOS>BOND
     1     1     8    1
     2     2    16    1
     3     2    17    1
     4     3     5    1
     5     4     5    1
     6     5     6    1
     7     6    19    1
     8     6     7    1
     9     6    18    1
    10     7    20    1
    11     7    10    1
    12     7    21    1
    13     8    13   ar
    14     8     9   ar
    15     9    22    1
    16     9    10   ar
    17    10    12   ar
    18    11    23    1
    19    11    16   ar
    20    11    12   ar
    21    12    13   ar
    22    13    14   ar
    23    14    24    1
    24    14    15   ar
    25    15    25    1
    26    15    16   ar
